data/nesta_case118_ieee.m
%%%%%%%%%%%%%%%%%%%%%%%%%%%%%%%%%%%%%%%%%%%%%%%%%%%%%%%%%%%%%%%%%%%%%%%%%%%
%%%%                                                                  %%%%%
%%%%      NICTA Energy System Test Case Archive (NESTA) - v0.2.0      %%%%%
%%%%              Optimal Power Flow - Typical Operation              %%%%%
%%%%                       06 - November - 2014                       %%%%%
%%%%                                                                  %%%%%
%%%%%%%%%%%%%%%%%%%%%%%%%%%%%%%%%%%%%%%%%%%%%%%%%%%%%%%%%%%%%%%%%%%%%%%%%%%
%
%   Power flow data for IEEE 118 bus test case.
%   Please see CASEFORMAT for details on the case file format.
%   (ieee118cdf.txt) on 20-Sep-2004 by cdf2matp, rev. 1.11
%
%   Converted from IEEE CDF file from:
%       http://www.ee.washington.edu/research/pstca/
%   
%   With base_kV data take from the PSAP format file from the same site,
%   added manually on 10-Mar-2006.
%
%   CDF Header:
%   08/25/93 UW ARCHIVE           100.0  1961 W IEEE 118 Bus Test Case
%
function mpc = nesta_case118_ieee
mpc.version = '2';
mpc.baseMVA = 100.0;

%% bus data
%	bus_i	type	Pd	Qd	Gs	Bs	area	Vm	Va	baseKV	zone	Vmax	Vmin
mpc.bus = [
	1	 2	 51.0	 27.0	 0.0	 0.0	 1	    1.03311	  -32.71927	 138.0	 1	    1.06000	    0.94000;
	2	 1	 20.0	 9.0	 0.0	 0.0	 1	    1.04474	  -31.35500	 138.0	 1	    1.06000	    0.94000;
	3	 1	 39.0	 10.0	 0.0	 0.0	 1	    1.03883	  -32.21639	 138.0	 1	    1.06000	    0.94000;
	4	 2	 39.0	 12.0	 0.0	 0.0	 1	    1.05717	  -30.56077	 138.0	 1	    1.06000	    0.94000;
	5	 1	 0.0	 0.0	 0.0	 -40.0	 1	    1.05560	  -30.35009	 138.0	 1	    1.06000	    0.94000;
	6	 2	 52.0	 22.0	 0.0	 0.0	 1	    1.05523	  -31.06566	 138.0	 1	    1.06000	    0.94000;
	7	 1	 19.0	 2.0	 0.0	 0.0	 1	    1.05614	  -30.77007	 138.0	 1	    1.06000	    0.94000;
	8	 2	 28.0	 0.0	 0.0	 0.0	 1	    1.04470	  -28.77807	 345.0	 1	    1.06000	    0.94000;
	9	 1	 0.0	 0.0	 0.0	 0.0	 1	    1.06000	  -28.84757	 345.0	 1	    1.06000	    0.94000;
	10	 2	 0.0	 0.0	 0.0	 0.0	 1	    1.03533	  -28.74077	 345.0	 1	    1.06000	    0.94000;
	11	 1	 70.0	 23.0	 0.0	 0.0	 1	    1.05161	  -30.68722	 138.0	 1	    1.06000	    0.94000;
	12	 2	 47.0	 10.0	 0.0	 0.0	 1	    1.05998	  -29.96300	 138.0	 1	    1.06000	    0.94000;
	13	 1	 34.0	 16.0	 0.0	 0.0	 1	    1.03909	  -31.49222	 138.0	 1	    1.06000	    0.94000;
	14	 1	 14.0	 1.0	 0.0	 0.0	 1	    1.05644	  -30.44136	 138.0	 1	    1.06000	    0.94000;
	15	 2	 90.0	 30.0	 0.0	 0.0	 1	    1.04944	  -30.27652	 138.0	 1	    1.06000	    0.94000;
	16	 1	 25.0	 10.0	 0.0	 0.0	 1	    1.05301	  -30.09398	 138.0	 1	    1.06000	    0.94000;
	17	 1	 11.0	 3.0	 0.0	 0.0	 1	    1.06000	  -28.21187	 138.0	 1	    1.06000	    0.94000;
	18	 2	 60.0	 34.0	 0.0	 0.0	 1	    1.05266	  -30.01904	 138.0	 1	    1.06000	    0.94000;
	19	 2	 45.0	 25.0	 0.0	 0.0	 1	    1.04790	  -30.20341	 138.0	 1	    1.06000	    0.94000;
	20	 1	 18.0	 3.0	 0.0	 0.0	 1	    1.03469	  -28.71802	 138.0	 1	    1.06000	    0.94000;
	21	 1	 14.0	 8.0	 0.0	 0.0	 1	    1.02932	  -26.80067	 138.0	 1	    1.06000	    0.94000;
	22	 1	 10.0	 5.0	 0.0	 0.0	 1	    1.03322	  -23.93715	 138.0	 1	    1.06000	    0.94000;
	23	 1	 7.0	 3.0	 0.0	 0.0	 1	    1.05203	  -18.52819	 138.0	 1	    1.06000	    0.94000;
	24	 2	 13.0	 0.0	 0.0	 0.0	 1	    1.05677	  -17.41511	 138.0	 1	    1.06000	    0.94000;
	25	 2	 0.0	 0.0	 0.0	 0.0	 1	    1.06000	  -12.57035	 138.0	 1	    1.06000	    0.94000;
	26	 2	 0.0	 0.0	 0.0	 0.0	 1	    1.02523	  -12.16934	 345.0	 1	    1.06000	    0.94000;
	27	 2	 71.0	 13.0	 0.0	 0.0	 1	    1.04145	  -24.93730	 138.0	 1	    1.06000	    0.94000;
	28	 1	 17.0	 7.0	 0.0	 0.0	 1	    1.03327	  -26.46641	 138.0	 1	    1.06000	    0.94000;
	29	 1	 24.0	 4.0	 0.0	 0.0	 1	    1.03202	  -27.36246	 138.0	 1	    1.06000	    0.94000;
	30	 1	 0.0	 0.0	 0.0	 0.0	 1	    1.02877	  -24.81028	 345.0	 1	    1.06000	    0.94000;
	31	 2	 43.0	 27.0	 0.0	 0.0	 1	    1.03446	  -27.26758	 138.0	 1	    1.06000	    0.94000;
	32	 2	 59.0	 23.0	 0.0	 0.0	 1	    1.04237	  -25.50527	 138.0	 1	    1.06000	    0.94000;
	33	 1	 23.0	 9.0	 0.0	 0.0	 1	    1.04644	  -29.68162	 138.0	 1	    1.06000	    0.94000;
	34	 2	 59.0	 26.0	 0.0	 14.0	 1	    1.05778	  -27.89210	 138.0	 1	    1.06000	    0.94000;
	35	 1	 33.0	 9.0	 0.0	 0.0	 1	    1.05520	  -28.29644	 138.0	 1	    1.06000	    0.94000;
	36	 2	 31.0	 17.0	 0.0	 0.0	 1	    1.05573	  -28.30939	 138.0	 1	    1.06000	    0.94000;
	37	 1	 0.0	 0.0	 0.0	 -25.0	 1	    1.06000	  -27.43883	 138.0	 1	    1.06000	    0.94000;
	38	 1	 0.0	 0.0	 0.0	 0.0	 1	    1.00987	  -23.06837	 345.0	 1	    1.06000	    0.94000;
	39	 1	 27.0	 11.0	 0.0	 0.0	 1	    1.03406	  -29.51071	 138.0	 1	    1.06000	    0.94000;
	40	 2	 66.0	 23.0	 0.0	 0.0	 1	    1.02955	  -29.93475	 138.0	 1	    1.06000	    0.94000;
	41	 1	 37.0	 10.0	 0.0	 0.0	 1	    1.01753	  -29.82669	 138.0	 1	    1.06000	    0.94000;
	42	 2	 96.0	 23.0	 0.0	 0.0	 1	    1.01048	  -26.89922	 138.0	 1	    1.06000	    0.94000;
	43	 1	 18.0	 7.0	 0.0	 0.0	 1	    1.02859	  -26.30123	 138.0	 1	    1.06000	    0.94000;
	44	 1	 16.0	 8.0	 0.0	 10.0	 1	    1.00459	  -21.44764	 138.0	 1	    1.06000	    0.94000;
	45	 1	 53.0	 22.0	 0.0	 10.0	 1	    0.99623	  -18.70226	 138.0	 1	    1.06000	    0.94000;
	46	 2	 28.0	 10.0	 0.0	 10.0	 1	    1.01237	  -15.56027	 138.0	 1	    1.06000	    0.94000;
	47	 1	 34.0	 0.0	 0.0	 0.0	 1	    1.01989	  -12.03968	 138.0	 1	    1.06000	    0.94000;
	48	 1	 20.0	 11.0	 0.0	 15.0	 1	    1.02066	  -13.14950	 138.0	 1	    1.06000	    0.94000;
	49	 2	 87.0	 30.0	 0.0	 0.0	 1	    1.02345	  -11.88028	 138.0	 1	    1.06000	    0.94000;
	50	 1	 17.0	 4.0	 0.0	 0.0	 1	    1.01156	  -15.08472	 138.0	 1	    1.06000	    0.94000;
	51	 1	 17.0	 8.0	 0.0	 0.0	 1	    0.99402	  -19.08809	 138.0	 1	    1.06000	    0.94000;
	52	 1	 18.0	 5.0	 0.0	 0.0	 1	    0.98853	  -20.39105	 138.0	 1	    1.06000	    0.94000;
	53	 1	 23.0	 11.0	 0.0	 0.0	 1	    0.99169	  -22.32186	 138.0	 1	    1.06000	    0.94000;
	54	 2	 113.0	 32.0	 0.0	 0.0	 1	    1.01050	  -22.22377	 138.0	 1	    1.06000	    0.94000;
	55	 2	 63.0	 22.0	 0.0	 0.0	 1	    1.01069	  -22.58342	 138.0	 1	    1.06000	    0.94000;
	56	 2	 84.0	 18.0	 0.0	 0.0	 1	    1.00998	  -22.28686	 138.0	 1	    1.06000	    0.94000;
	57	 1	 12.0	 3.0	 0.0	 0.0	 1	    1.00629	  -19.64626	 138.0	 1	    1.06000	    0.94000;
	58	 1	 12.0	 3.0	 0.0	 0.0	 1	    0.99831	  -20.74147	 138.0	 1	    1.06000	    0.94000;
	59	 2	 277.0	 113.0	 0.0	 0.0	 1	    1.04826	  -20.05965	 138.0	 1	    1.06000	    0.94000;
	60	 1	 78.0	 3.0	 0.0	 0.0	 1	    1.05499	  -15.24337	 138.0	 1	    1.06000	    0.94000;
	61	 2	 0.0	 0.0	 0.0	 0.0	 1	    1.06000	  -14.62807	 138.0	 1	    1.06000	    0.94000;
	62	 2	 77.0	 14.0	 0.0	 0.0	 1	    1.04640	  -13.67879	 138.0	 1	    1.06000	    0.94000;
	63	 1	 0.0	 0.0	 0.0	 0.0	 1	    1.01784	  -15.42528	 345.0	 1	    1.06000	    0.94000;
	64	 1	 0.0	 0.0	 0.0	 0.0	 1	    1.02888	  -12.90817	 345.0	 1	    1.06000	    0.94000;
	65	 2	 0.0	 0.0	 0.0	 0.0	 1	    1.02959	   -6.98728	 345.0	 1	    1.06000	    0.94000;
	66	 2	 39.0	 18.0	 0.0	 0.0	 1	    1.06000	   -3.10148	 138.0	 1	    1.06000	    0.94000;
	67	 1	 28.0	 7.0	 0.0	 0.0	 1	    1.04390	   -8.75187	 138.0	 1	    1.06000	    0.94000;
	68	 1	 0.0	 0.0	 0.0	 0.0	 1	    1.02038	   -5.70070	 345.0	 1	    1.06000	    0.94000;
	69	 3	 0.0	 0.0	 0.0	 0.0	 1	    1.06000	    0.00000	 138.0	 1	    1.06000	    0.94000;
	70	 2	 66.0	 20.0	 0.0	 0.0	 1	    1.03177	  -10.12542	 138.0	 1	    1.06000	    0.94000;
	71	 1	 0.0	 0.0	 0.0	 0.0	 1	    1.03552	  -11.02514	 138.0	 1	    1.06000	    0.94000;
	72	 2	 12.0	 0.0	 0.0	 0.0	 1	    1.04425	  -14.74685	 138.0	 1	    1.06000	    0.94000;
	73	 2	 6.0	 0.0	 0.0	 0.0	 1	    1.03746	  -11.19628	 138.0	 1	    1.06000	    0.94000;
	74	 2	 68.0	 27.0	 0.0	 12.0	 1	    1.01054	  -10.61032	 138.0	 1	    1.06000	    0.94000;
	75	 1	 47.0	 11.0	 0.0	 0.0	 1	    1.01401	   -9.24198	 138.0	 1	    1.06000	    0.94000;
	76	 2	 68.0	 36.0	 0.0	 0.0	 1	    0.99964	  -10.90682	 138.0	 1	    1.06000	    0.94000;
	77	 2	 61.0	 28.0	 0.0	 0.0	 1	    1.04412	   -6.86220	 138.0	 1	    1.06000	    0.94000;
	78	 1	 71.0	 26.0	 0.0	 0.0	 1	    1.03972	   -7.19813	 138.0	 1	    1.06000	    0.94000;
	79	 1	 39.0	 32.0	 0.0	 20.0	 1	    1.04175	   -7.03632	 138.0	 1	    1.06000	    0.94000;
	80	 2	 130.0	 26.0	 0.0	 0.0	 1	    1.06000	   -5.22515	 138.0	 1	    1.06000	    0.94000;
	81	 1	 0.0	 0.0	 0.0	 0.0	 1	    1.01437	   -5.50217	 345.0	 1	    1.06000	    0.94000;
	82	 1	 54.0	 27.0	 0.0	 20.0	 1	    1.03487	   -7.93535	 138.0	 1	    1.06000	    0.94000;
	83	 1	 20.0	 10.0	 0.0	 10.0	 1	    1.03742	   -7.35964	 138.0	 1	    1.06000	    0.94000;
	84	 1	 11.0	 7.0	 0.0	 0.0	 1	    1.04088	   -5.90055	 138.0	 1	    1.06000	    0.94000;
	85	 2	 24.0	 15.0	 0.0	 0.0	 1	    1.04908	   -4.90853	 138.0	 1	    1.06000	    0.94000;
	86	 1	 21.0	 10.0	 0.0	 0.0	 1	    1.04210	   -6.26879	 138.0	 1	    1.06000	    0.94000;
	87	 2	 0.0	 0.0	 0.0	 0.0	 1	    1.05483	   -6.36424	 161.0	 1	    1.06000	    0.94000;
	88	 1	 48.0	 10.0	 0.0	 0.0	 1	    1.04736	   -2.53156	 138.0	 1	    1.06000	    0.94000;
	89	 2	 0.0	 0.0	 0.0	 0.0	 1	    1.06000	    0.82225	 138.0	 1	    1.06000	    0.94000;
	90	 2	 163.0	 42.0	 0.0	 0.0	 1	    1.05123	   -4.92228	 138.0	 1	    1.06000	    0.94000;
	91	 2	 10.0	 0.0	 0.0	 0.0	 1	    1.04429	   -4.77291	 138.0	 1	    1.06000	    0.94000;
	92	 2	 65.0	 10.0	 0.0	 0.0	 1	    1.04500	   -4.00062	 138.0	 1	    1.06000	    0.94000;
	93	 1	 12.0	 7.0	 0.0	 0.0	 1	    1.03507	   -6.21951	 138.0	 1	    1.06000	    0.94000;
	94	 1	 30.0	 16.0	 0.0	 0.0	 1	    1.03353	   -7.74312	 138.0	 1	    1.06000	    0.94000;
	95	 1	 42.0	 31.0	 0.0	 0.0	 1	    1.02307	   -8.23570	 138.0	 1	    1.06000	    0.94000;
	96	 1	 38.0	 15.0	 0.0	 0.0	 1	    1.03271	   -7.88189	 138.0	 1	    1.06000	    0.94000;
	97	 1	 15.0	 9.0	 0.0	 0.0	 1	    1.04165	   -6.90088	 138.0	 1	    1.06000	    0.94000;
	98	 1	 34.0	 8.0	 0.0	 0.0	 1	    1.04959	   -7.68875	 138.0	 1	    1.06000	    0.94000;
	99	 2	 42.0	 0.0	 0.0	 0.0	 1	    1.05167	   -9.01853	 138.0	 1	    1.06000	    0.94000;
	100	 2	 37.0	 18.0	 0.0	 0.0	 1	    1.05338	   -8.72082	 138.0	 1	    1.06000	    0.94000;
	101	 1	 22.0	 15.0	 0.0	 0.0	 1	    1.03700	   -7.50466	 138.0	 1	    1.06000	    0.94000;
	102	 1	 5.0	 3.0	 0.0	 0.0	 1	    1.04129	   -5.25695	 138.0	 1	    1.06000	    0.94000;
	103	 2	 23.0	 16.0	 0.0	 0.0	 1	    1.05047	  -11.56275	 138.0	 1	    1.06000	    0.94000;
	104	 2	 38.0	 25.0	 0.0	 0.0	 1	    1.03719	  -14.84557	 138.0	 1	    1.06000	    0.94000;
	105	 2	 31.0	 26.0	 0.0	 20.0	 1	    1.03467	  -16.01125	 138.0	 1	    1.06000	    0.94000;
	106	 1	 43.0	 16.0	 0.0	 0.0	 1	    1.02659	  -16.14664	 138.0	 1	    1.06000	    0.94000;
	107	 2	 50.0	 12.0	 0.0	 6.0	 1	    1.02218	  -18.65705	 138.0	 1	    1.06000	    0.94000;
	108	 1	 2.0	 1.0	 0.0	 0.0	 1	    1.02806	  -17.55285	 138.0	 1	    1.06000	    0.94000;
	109	 1	 8.0	 3.0	 0.0	 0.0	 1	    1.02574	  -18.15583	 138.0	 1	    1.06000	    0.94000;
	110	 2	 39.0	 30.0	 0.0	 6.0	 1	    1.02330	  -19.44940	 138.0	 1	    1.06000	    0.94000;
	111	 2	 0.0	 0.0	 0.0	 0.0	 1	    1.02641	  -19.50005	 138.0	 1	    1.06000	    0.94000;
	112	 2	 68.0	 13.0	 0.0	 0.0	 1	    1.00985	  -21.95294	 138.0	 1	    1.06000	    0.94000;
	113	 2	 6.0	 0.0	 0.0	 0.0	 1	    1.05701	  -27.94596	 138.0	 1	    1.06000	    0.94000;
	114	 1	 8.0	 3.0	 0.0	 0.0	 1	    1.03745	  -25.75113	 138.0	 1	    1.06000	    0.94000;
	115	 1	 22.0	 7.0	 0.0	 0.0	 1	    1.03699	  -25.75124	 138.0	 1	    1.06000	    0.94000;
	116	 2	 184.0	 0.0	 0.0	 0.0	 1	    1.01925	   -6.10893	 138.0	 1	    1.06000	    0.94000;
	117	 1	 20.0	 8.0	 0.0	 0.0	 1	    1.04530	  -31.30819	 138.0	 1	    1.06000	    0.94000;
	118	 1	 33.0	 15.0	 0.0	 0.0	 1	    1.00110	  -10.43603	 138.0	 1	    1.06000	    0.94000;
];

%% generator data
%	bus	Pg	Qg	Qmax	Qmin	Vg	mBase	status	Pmax	Pmin	Pc1	Pc2	Qc1min	Qc1max	Qc2min	Qc2max	ramp_agc	ramp_10	ramp_30	ramp_q	apf
mpc.gen = [
	1	 0.0	 15.0	 15.0	 -5.0	 1.03311	 100.0	 1	 0	 0.0	 0.0	 0.0	 0.0	 0.0	 0.0	 0.0	 0.0	 0.0	 0.0	 0.0	 0.0; % SYNC
	4	 0.0	 48.44	 300.0	 -300.0	 1.05717	 100.0	 1	 0	 0.0	 0.0	 0.0	 0.0	 0.0	 0.0	 0.0	 0.0	 0.0	 0.0	 0.0	 0.0; % SYNC
	6	 0.0	 27.258	 50.0	 -13.0	 1.05523	 100.0	 1	 0	 0.0	 0.0	 0.0	 0.0	 0.0	 0.0	 0.0	 0.0	 0.0	 0.0	 0.0	 0.0; % SYNC
	8	 0.0	 -72.012	 300.0	 -300.0	 1.0447	 100.0	 1	 0	 0.0	 0.0	 0.0	 0.0	 0.0	 0.0	 0.0	 0.0	 0.0	 0.0	 0.0	 0.0; % SYNC
	10	 0.0	 -145.231	 200.0	 -147.0	 1.03533	 100.0	 1	 663	 0.0	 0.0	 0.0	 0.0	 0.0	 0.0	 0.0	 0.0	 0.0	 0.0	 0.0	 0.0; % NG
	12	 287.0	 57.828	 120.0	 -35.0	 1.05998	 100.0	 1	 287	 0.0	 0.0	 0.0	 0.0	 0.0	 0.0	 0.0	 0.0	 0.0	 0.0	 0.0	 0.0; % NG
	15	 0.0	 30.0	 30.0	 -10.0	 1.04944	 100.0	 1	 0	 0.0	 0.0	 0.0	 0.0	 0.0	 0.0	 0.0	 0.0	 0.0	 0.0	 0.0	 0.0; % SYNC
	18	 0.0	 43.379	 50.0	 -16.0	 1.05266	 100.0	 1	 0	 0.0	 0.0	 0.0	 0.0	 0.0	 0.0	 0.0	 0.0	 0.0	 0.0	 0.0	 0.0; % SYNC
	19	 0.0	 24.0	 24.0	 -8.0	 1.0479	 100.0	 1	 0	 0.0	 0.0	 0.0	 0.0	 0.0	 0.0	 0.0	 0.0	 0.0	 0.0	 0.0	 0.0; % SYNC
	24	 0.0	 9.283	 300.0	 -300.0	 1.05677	 100.0	 1	 0	 0.0	 0.0	 0.0	 0.0	 0.0	 0.0	 0.0	 0.0	 0.0	 0.0	 0.0	 0.0; % SYNC
	25	 267.0	 -47.0	 134.0	 -47.0	 1.06	 100.0	 1	 267	 0.0	 0.0	 0.0	 0.0	 0.0	 0.0	 0.0	 0.0	 0.0	 0.0	 0.0	 0.0; % NG
	26	 289.182	 -24.854	 226.0	 -226.0	 1.02523	 100.0	 1	 451	 0.0	 0.0	 0.0	 0.0	 0.0	 0.0	 0.0	 0.0	 0.0	 0.0	 0.0	 0.0; % NG
	27	 0.0	 30.558	 300.0	 -300.0	 1.04145	 100.0	 1	 0	 0.0	 0.0	 0.0	 0.0	 0.0	 0.0	 0.0	 0.0	 0.0	 0.0	 0.0	 0.0; % SYNC
	31	 23.0	 12.0	 12.0	 -12.0	 1.03446	 100.0	 1	 23	 0.0	 0.0	 0.0	 0.0	 0.0	 0.0	 0.0	 0.0	 0.0	 0.0	 0.0	 0.0; % NG
	32	 0.0	 36.041	 42.0	 -14.0	 1.04237	 100.0	 1	 0	 0.0	 0.0	 0.0	 0.0	 0.0	 0.0	 0.0	 0.0	 0.0	 0.0	 0.0	 0.0; % SYNC
	34	 0.0	 24.0	 24.0	 -8.0	 1.05778	 100.0	 1	 0	 0.0	 0.0	 0.0	 0.0	 0.0	 0.0	 0.0	 0.0	 0.0	 0.0	 0.0	 0.0; % SYNC
	36	 0.0	 24.0	 24.0	 -8.0	 1.05573	 100.0	 1	 0	 0.0	 0.0	 0.0	 0.0	 0.0	 0.0	 0.0	 0.0	 0.0	 0.0	 0.0	 0.0; % SYNC
	40	 0.0	 49.699	 300.0	 -300.0	 1.02955	 100.0	 1	 0	 0.0	 0.0	 0.0	 0.0	 0.0	 0.0	 0.0	 0.0	 0.0	 0.0	 0.0	 0.0; % SYNC
	42	 0.0	 26.198	 300.0	 -300.0	 1.01048	 100.0	 1	 0	 0.0	 0.0	 0.0	 0.0	 0.0	 0.0	 0.0	 0.0	 0.0	 0.0	 0.0	 0.0; % SYNC
	46	 0.0	 7.721	 26.0	 -26.0	 1.01237	 100.0	 1	 51	 0.0	 0.0	 0.0	 0.0	 0.0	 0.0	 0.0	 0.0	 0.0	 0.0	 0.0	 0.0; % NG
	49	 232.0	 -10.657	 116.0	 -85.0	 1.02345	 100.0	 1	 232	 0.0	 0.0	 0.0	 0.0	 0.0	 0.0	 0.0	 0.0	 0.0	 0.0	 0.0	 0.0; % NG
	54	 0.0	 55.908	 75.0	 -75.0	 1.0105	 100.0	 1	 150	 0.0	 0.0	 0.0	 0.0	 0.0	 0.0	 0.0	 0.0	 0.0	 0.0	 0.0	 0.0; % NG
	55	 0.0	 23.0	 23.0	 -8.0	 1.01069	 100.0	 1	 0	 0.0	 0.0	 0.0	 0.0	 0.0	 0.0	 0.0	 0.0	 0.0	 0.0	 0.0	 0.0; % SYNC
	56	 0.0	 15.0	 15.0	 -8.0	 1.00998	 100.0	 1	 0	 0.0	 0.0	 0.0	 0.0	 0.0	 0.0	 0.0	 0.0	 0.0	 0.0	 0.0	 0.0; % SYNC
	59	 0.0	 141.0	 141.0	 -60.0	 1.04826	 100.0	 1	 282	 0.0	 0.0	 0.0	 0.0	 0.0	 0.0	 0.0	 0.0	 0.0	 0.0	 0.0	 0.0; % NG
	61	 0.0	 124.696	 126.0	 -100.0	 1.06	 100.0	 1	 251	 0.0	 0.0	 0.0	 0.0	 0.0	 0.0	 0.0	 0.0	 0.0	 0.0	 0.0	 0.0; % NG
	62	 0.0	 -19.998	 20.0	 -20.0	 1.0464	 100.0	 1	 0	 0.0	 0.0	 0.0	 0.0	 0.0	 0.0	 0.0	 0.0	 0.0	 0.0	 0.0	 0.0; % SYNC
	65	 301.232	 117.37	 200.0	 -67.0	 1.02959	 100.0	 1	 608	 0.0	 0.0	 0.0	 0.0	 0.0	 0.0	 0.0	 0.0	 0.0	 0.0	 0.0	 0.0; % NG
	66	 820.189	 -67.0	 200.0	 -67.0	 1.06	 100.0	 1	 865	 0.0	 0.0	 0.0	 0.0	 0.0	 0.0	 0.0	 0.0	 0.0	 0.0	 0.0	 0.0; % COW
	69	 881.0	 -114.007	 300.0	 -300.0	 1.06	 100.0	 1	 881	 0.0	 0.0	 0.0	 0.0	 0.0	 0.0	 0.0	 0.0	 0.0	 0.0	 0.0	 0.0; % COW
	70	 0.0	 32.0	 32.0	 -10.0	 1.03177	 100.0	 1	 0	 0.0	 0.0	 0.0	 0.0	 0.0	 0.0	 0.0	 0.0	 0.0	 0.0	 0.0	 0.0; % SYNC
	72	 0.0	 -1.861	 100.0	 -100.0	 1.04425	 100.0	 1	 0	 0.0	 0.0	 0.0	 0.0	 0.0	 0.0	 0.0	 0.0	 0.0	 0.0	 0.0	 0.0; % SYNC
	73	 0.0	 4.963	 100.0	 -100.0	 1.03746	 100.0	 1	 0	 0.0	 0.0	 0.0	 0.0	 0.0	 0.0	 0.0	 0.0	 0.0	 0.0	 0.0	 0.0; % SYNC
	74	 0.0	 9.0	 9.0	 -6.0	 1.01054	 100.0	 1	 0	 0.0	 0.0	 0.0	 0.0	 0.0	 0.0	 0.0	 0.0	 0.0	 0.0	 0.0	 0.0; % SYNC
	76	 0.0	 23.0	 23.0	 -8.0	 0.99964	 100.0	 1	 0	 0.0	 0.0	 0.0	 0.0	 0.0	 0.0	 0.0	 0.0	 0.0	 0.0	 0.0	 0.0; % SYNC
	77	 0.0	 70.0	 70.0	 -20.0	 1.04412	 100.0	 1	 0	 0.0	 0.0	 0.0	 0.0	 0.0	 0.0	 0.0	 0.0	 0.0	 0.0	 0.0	 0.0; % SYNC
	80	 446.786	 -0.078	 280.0	 -165.0	 1.06	 100.0	 1	 739	 0.0	 0.0	 0.0	 0.0	 0.0	 0.0	 0.0	 0.0	 0.0	 0.0	 0.0	 0.0; % COW
	85	 0.0	 23.0	 23.0	 -8.0	 1.04908	 100.0	 1	 0	 0.0	 0.0	 0.0	 0.0	 0.0	 0.0	 0.0	 0.0	 0.0	 0.0	 0.0	 0.0; % SYNC
	87	 0.0	 4.0	 4.0	 -4.0	 1.05483	 100.0	 1	 7	 0.0	 0.0	 0.0	 0.0	 0.0	 0.0	 0.0	 0.0	 0.0	 0.0	 0.0	 0.0; % NG
	89	 566.031	 -31.463	 300.0	 -210.0	 1.06	 100.0	 1	 845	 0.0	 0.0	 0.0	 0.0	 0.0	 0.0	 0.0	 0.0	 0.0	 0.0	 0.0	 0.0; % COW
	90	 0.0	 76.211	 300.0	 -300.0	 1.05123	 100.0	 1	 0	 0.0	 0.0	 0.0	 0.0	 0.0	 0.0	 0.0	 0.0	 0.0	 0.0	 0.0	 0.0; % SYNC
	91	 0.0	 -9.071	 100.0	 -100.0	 1.04429	 100.0	 1	 0	 0.0	 0.0	 0.0	 0.0	 0.0	 0.0	 0.0	 0.0	 0.0	 0.0	 0.0	 0.0; % SYNC
	92	 0.0	 -3.0	 9.0	 -3.0	 1.045	 100.0	 1	 0	 0.0	 0.0	 0.0	 0.0	 0.0	 0.0	 0.0	 0.0	 0.0	 0.0	 0.0	 0.0; % SYNC
	99	 0.0	 -0.207	 100.0	 -100.0	 1.05167	 100.0	 1	 0	 0.0	 0.0	 0.0	 0.0	 0.0	 0.0	 0.0	 0.0	 0.0	 0.0	 0.0	 0.0; % SYNC
	100	 187.932	 49.477	 151.0	 -50.0	 1.05338	 100.0	 1	 301	 0.0	 0.0	 0.0	 0.0	 0.0	 0.0	 0.0	 0.0	 0.0	 0.0	 0.0	 0.0; % NG
	103	 98.0	 29.946	 40.0	 -15.0	 1.05047	 100.0	 1	 98	 0.0	 0.0	 0.0	 0.0	 0.0	 0.0	 0.0	 0.0	 0.0	 0.0	 0.0	 0.0; % NG
	104	 0.0	 23.0	 23.0	 -8.0	 1.03719	 100.0	 1	 0	 0.0	 0.0	 0.0	 0.0	 0.0	 0.0	 0.0	 0.0	 0.0	 0.0	 0.0	 0.0; % SYNC
	105	 0.0	 23.0	 23.0	 -8.0	 1.03467	 100.0	 1	 0	 0.0	 0.0	 0.0	 0.0	 0.0	 0.0	 0.0	 0.0	 0.0	 0.0	 0.0	 0.0; % SYNC
	107	 0.0	 6.998	 200.0	 -200.0	 1.02218	 100.0	 1	 0	 0.0	 0.0	 0.0	 0.0	 0.0	 0.0	 0.0	 0.0	 0.0	 0.0	 0.0	 0.0; % SYNC
	110	 0.0	 23.0	 23.0	 -8.0	 1.0233	 100.0	 1	 0	 0.0	 0.0	 0.0	 0.0	 0.0	 0.0	 0.0	 0.0	 0.0	 0.0	 0.0	 0.0; % SYNC
	111	 0.0	 3.17	 67.0	 -67.0	 1.02641	 100.0	 1	 133	 0.0	 0.0	 0.0	 0.0	 0.0	 0.0	 0.0	 0.0	 0.0	 0.0	 0.0	 0.0; % NG
	112	 0.0	 16.395	 1000.0	 -100.0	 1.00985	 100.0	 1	 0	 0.0	 0.0	 0.0	 0.0	 0.0	 0.0	 0.0	 0.0	 0.0	 0.0	 0.0	 0.0; % SYNC
	113	 0.0	 -3.851	 200.0	 -100.0	 1.05701	 100.0	 1	 0	 0.0	 0.0	 0.0	 0.0	 0.0	 0.0	 0.0	 0.0	 0.0	 0.0	 0.0	 0.0; % SYNC
	116	 0.0	 -20.833	 1000.0	 -1000.0	 1.01925	 100.0	 1	 0	 0.0	 0.0	 0.0	 0.0	 0.0	 0.0	 0.0	 0.0	 0.0	 0.0	 0.0	 0.0; % SYNC
];

%% generator cost data
%	2	startup	shutdown	n	c(n-1)	...	c0
mpc.gencost = [
	2	 0.0	 0.0	 3	   0.000000	   0.000000	   0.000000; % SYNC
	2	 0.0	 0.0	 3	   0.000000	   0.000000	   0.000000; % SYNC
	2	 0.0	 0.0	 3	   0.000000	   0.000000	   0.000000; % SYNC
	2	 0.0	 0.0	 3	   0.000000	   0.000000	   0.000000; % SYNC
	2	 0.0	 0.0	 3	   0.000000	   1.463389	   0.000000; % NG
	2	 0.0	 0.0	 3	   0.000000	   0.889054	   0.000000; % NG
	2	 0.0	 0.0	 3	   0.000000	   0.000000	   0.000000; % SYNC
	2	 0.0	 0.0	 3	   0.000000	   0.000000	   0.000000; % SYNC
	2	 0.0	 0.0	 3	   0.000000	   0.000000	   0.000000; % SYNC
	2	 0.0	 0.0	 3	   0.000000	   0.000000	   0.000000; % SYNC
	2	 0.0	 0.0	 3	   0.000000	   0.929688	   0.000000; % NG
	2	 0.0	 0.0	 3	   0.000000	   1.118121	   0.000000; % NG
	2	 0.0	 0.0	 3	   0.000000	   0.000000	   0.000000; % SYNC
	2	 0.0	 0.0	 3	   0.000000	   0.814446	   0.000000; % NG
	2	 0.0	 0.0	 3	   0.000000	   0.000000	   0.000000; % SYNC
	2	 0.0	 0.0	 3	   0.000000	   0.000000	   0.000000; % SYNC
	2	 0.0	 0.0	 3	   0.000000	   0.000000	   0.000000; % SYNC
	2	 0.0	 0.0	 3	   0.000000	   0.000000	   0.000000; % SYNC
	2	 0.0	 0.0	 3	   0.000000	   0.000000	   0.000000; % SYNC
	2	 0.0	 0.0	 3	   0.000000	   1.513792	   0.000000; % NG
	2	 0.0	 0.0	 3	   0.000000	   1.071413	   0.000000; % NG
	2	 0.0	 0.0	 3	   0.000000	   1.324712	   0.000000; % NG
	2	 0.0	 0.0	 3	   0.000000	   0.000000	   0.000000; % SYNC
	2	 0.0	 0.0	 3	   0.000000	   0.000000	   0.000000; % SYNC
	2	 0.0	 0.0	 3	   0.000000	   1.426207	   0.000000; % NG
	2	 0.0	 0.0	 3	   0.000000	   1.245208	   0.000000; % NG
	2	 0.0	 0.0	 3	   0.000000	   0.000000	   0.000000; % SYNC
	2	 0.0	 0.0	 3	   0.000000	   0.969762	   0.000000; % NG
	2	 0.0	 0.0	 3	   0.000000	   0.865713	   0.000000; % COW
	2	 0.0	 0.0	 3	   0.000000	   0.518513	   0.000000; % COW
	2	 0.0	 0.0	 3	   0.000000	   0.000000	   0.000000; % SYNC
	2	 0.0	 0.0	 3	   0.000000	   0.000000	   0.000000; % SYNC
	2	 0.0	 0.0	 3	   0.000000	   0.000000	   0.000000; % SYNC
	2	 0.0	 0.0	 3	   0.000000	   0.000000	   0.000000; % SYNC
	2	 0.0	 0.0	 3	   0.000000	   0.000000	   0.000000; % SYNC
	2	 0.0	 0.0	 3	   0.000000	   0.000000	   0.000000; % SYNC
	2	 0.0	 0.0	 3	   0.000000	   1.006636	   0.000000; % COW
	2	 0.0	 0.0	 3	   0.000000	   0.000000	   0.000000; % SYNC
	2	 0.0	 0.0	 3	   0.000000	   1.381184	   0.000000; % NG
	2	 0.0	 0.0	 3	   0.000000	   0.793496	   0.000000; % COW
	2	 0.0	 0.0	 3	   0.000000	   0.000000	   0.000000; % SYNC
	2	 0.0	 0.0	 3	   0.000000	   0.000000	   0.000000; % SYNC
	2	 0.0	 0.0	 3	   0.000000	   0.000000	   0.000000; % SYNC
	2	 0.0	 0.0	 3	   0.000000	   0.000000	   0.000000; % SYNC
	2	 0.0	 0.0	 3	   0.000000	   1.066562	   0.000000; % NG
	2	 0.0	 0.0	 3	   0.000000	   0.691193	   0.000000; % NG
	2	 0.0	 0.0	 3	   0.000000	   0.000000	   0.000000; % SYNC
	2	 0.0	 0.0	 3	   0.000000	   0.000000	   0.000000; % SYNC
	2	 0.0	 0.0	 3	   0.000000	   0.000000	   0.000000; % SYNC
	2	 0.0	 0.0	 3	   0.000000	   0.000000	   0.000000; % SYNC
	2	 0.0	 0.0	 3	   0.000000	   1.200887	   0.000000; % NG
	2	 0.0	 0.0	 3	   0.000000	   0.000000	   0.000000; % SYNC
	2	 0.0	 0.0	 3	   0.000000	   0.000000	   0.000000; % SYNC
	2	 0.0	 0.0	 3	   0.000000	   0.000000	   0.000000; % SYNC
];

%% branch data
%	fbus	tbus	r	x	b	rateA	rateB	rateC	ratio	angle	status	angmin	angmax
mpc.branch = [
	1	 2	 0.0303	 0.0999	 0.0254	 150	 150	 150	 0.0	 0.0	 1	 -30.0	 30.0;
	1	 3	 0.0129	 0.0424	 0.01082	 150	 150	 150	 0.0	 0.0	 1	 -30.0	 30.0;
	4	 5	 0.00176	 0.00798	 0.0021	 175	 175	 175	 0.0	 0.0	 1	 -30.0	 30.0;
	3	 5	 0.0241	 0.108	 0.0284	 174	 174	 174	 0.0	 0.0	 1	 -30.0	 30.0;
	5	 6	 0.0119	 0.054	 0.01426	 175	 175	 175	 0.0	 0.0	 1	 -30.0	 30.0;
	6	 7	 0.00459	 0.0208	 0.0055	 175	 175	 175	 0.0	 0.0	 1	 -30.0	 30.0;
	8	 9	 0.00244	 0.0305	 1.162	 710	 710	 710	 0.0	 0.0	 1	 -30.0	 30.0;
	8	 5	 0.0	 0.0267	 0.0	 1098	 1098	 1098	 0.985	 0.0	 1	 -30.0	 30.0;
	9	 10	 0.00258	 0.0322	 1.23	 709	 709	 709	 0.0	 0.0	 1	 -30.0	 30.0;
	4	 11	 0.0209	 0.0688	 0.01748	 150	 150	 150	 0.0	 0.0	 1	 -30.0	 30.0;
	5	 11	 0.0203	 0.0682	 0.01738	 151	 151	 151	 0.0	 0.0	 1	 -30.0	 30.0;
	11	 12	 0.00595	 0.0196	 0.00502	 150	 150	 150	 0.0	 0.0	 1	 -30.0	 30.0;
	2	 12	 0.0187	 0.0616	 0.01572	 150	 150	 150	 0.0	 0.0	 1	 -30.0	 30.0;
	3	 12	 0.0484	 0.16	 0.0406	 150	 150	 150	 0.0	 0.0	 1	 -30.0	 30.0;
	7	 12	 0.00862	 0.034	 0.00874	 163	 163	 163	 0.0	 0.0	 1	 -30.0	 30.0;
	11	 13	 0.02225	 0.0731	 0.01876	 150	 150	 150	 0.0	 0.0	 1	 -30.0	 30.0;
	12	 14	 0.0215	 0.0707	 0.01816	 150	 150	 150	 0.0	 0.0	 1	 -30.0	 30.0;
	13	 15	 0.0744	 0.2444	 0.06268	 114	 114	 114	 0.0	 0.0	 1	 -30.0	 30.0;
	14	 15	 0.0595	 0.195	 0.0502	 143	 143	 143	 0.0	 0.0	 1	 -30.0	 30.0;
	12	 16	 0.0212	 0.0834	 0.0214	 163	 163	 163	 0.0	 0.0	 1	 -30.0	 30.0;
	15	 17	 0.0132	 0.0437	 0.0444	 150	 150	 150	 0.0	 0.0	 1	 -30.0	 30.0;
	16	 17	 0.0454	 0.1801	 0.0466	 157	 157	 157	 0.0	 0.0	 1	 -30.0	 30.0;
	17	 18	 0.0123	 0.0505	 0.01298	 166	 166	 166	 0.0	 0.0	 1	 -30.0	 30.0;
	18	 19	 0.01119	 0.0493	 0.01142	 172	 172	 172	 0.0	 0.0	 1	 -30.0	 30.0;
	19	 20	 0.0252	 0.117	 0.0298	 177	 177	 177	 0.0	 0.0	 1	 -30.0	 30.0;
	15	 19	 0.012	 0.0394	 0.0101	 150	 150	 150	 0.0	 0.0	 1	 -30.0	 30.0;
	20	 21	 0.0183	 0.0849	 0.0216	 176	 176	 176	 0.0	 0.0	 1	 -30.0	 30.0;
	21	 22	 0.0209	 0.097	 0.0246	 177	 177	 177	 0.0	 0.0	 1	 -30.0	 30.0;
	22	 23	 0.0342	 0.159	 0.0404	 177	 177	 177	 0.0	 0.0	 1	 -30.0	 30.0;
	23	 24	 0.0135	 0.0492	 0.0498	 157	 157	 157	 0.0	 0.0	 1	 -30.0	 30.0;
	23	 25	 0.0156	 0.08	 0.0864	 185	 185	 185	 0.0	 0.0	 1	 -30.0	 30.0;
	26	 25	 0.0	 0.0382	 0.0	 767	 767	 767	 0.96	 0.0	 1	 -30.0	 30.0;
	25	 27	 0.0318	 0.163	 0.1764	 176	 176	 176	 0.0	 0.0	 1	 -30.0	 30.0;
	27	 28	 0.01913	 0.0855	 0.0216	 173	 173	 173	 0.0	 0.0	 1	 -30.0	 30.0;
	28	 29	 0.0237	 0.0943	 0.0238	 164	 164	 164	 0.0	 0.0	 1	 -30.0	 30.0;
	30	 17	 0.0	 0.0388	 0.0	 755	 755	 755	 0.96	 0.0	 1	 -30.0	 30.0;
	8	 30	 0.00431	 0.0504	 0.514	 579	 579	 579	 0.0	 0.0	 1	 -30.0	 30.0;
	26	 30	 0.00799	 0.086	 0.908	 339	 339	 339	 0.0	 0.0	 1	 -30.0	 30.0;
	17	 31	 0.0474	 0.1563	 0.0399	 150	 150	 150	 0.0	 0.0	 1	 -30.0	 30.0;
	29	 31	 0.0108	 0.0331	 0.0083	 145	 145	 145	 0.0	 0.0	 1	 -30.0	 30.0;
	23	 32	 0.0317	 0.1153	 0.1173	 157	 157	 157	 0.0	 0.0	 1	 -30.0	 30.0;
	31	 32	 0.0298	 0.0985	 0.0251	 150	 150	 150	 0.0	 0.0	 1	 -30.0	 30.0;
	27	 32	 0.0229	 0.0755	 0.01926	 150	 150	 150	 0.0	 0.0	 1	 -30.0	 30.0;
	15	 33	 0.038	 0.1244	 0.03194	 149	 149	 149	 0.0	 0.0	 1	 -30.0	 30.0;
	19	 34	 0.0752	 0.247	 0.0632	 113	 113	 113	 0.0	 0.0	 1	 -30.0	 30.0;
	35	 36	 0.00224	 0.0102	 0.00268	 175	 175	 175	 0.0	 0.0	 1	 -30.0	 30.0;
	35	 37	 0.011	 0.0497	 0.01318	 174	 174	 174	 0.0	 0.0	 1	 -30.0	 30.0;
	33	 37	 0.0415	 0.142	 0.0366	 153	 153	 153	 0.0	 0.0	 1	 -30.0	 30.0;
	34	 36	 0.00871	 0.0268	 0.00568	 145	 145	 145	 0.0	 0.0	 1	 -30.0	 30.0;
	34	 37	 0.00256	 0.0094	 0.00984	 158	 158	 158	 0.0	 0.0	 1	 -30.0	 30.0;
	38	 37	 0.0	 0.0375	 0.0	 782	 782	 782	 0.935	 0.0	 1	 -30.0	 30.0;
	37	 39	 0.0321	 0.106	 0.027	 150	 150	 150	 0.0	 0.0	 1	 -30.0	 30.0;
	37	 40	 0.0593	 0.168	 0.042	 139	 139	 139	 0.0	 0.0	 1	 -30.0	 30.0;
	30	 38	 0.00464	 0.054	 0.422	 541	 541	 541	 0.0	 0.0	 1	 -30.0	 30.0;
	39	 40	 0.0184	 0.0605	 0.01552	 150	 150	 150	 0.0	 0.0	 1	 -30.0	 30.0;
	40	 41	 0.0145	 0.0487	 0.01222	 151	 151	 151	 0.0	 0.0	 1	 -30.0	 30.0;
	40	 42	 0.0555	 0.183	 0.0466	 150	 150	 150	 0.0	 0.0	 1	 -30.0	 30.0;
	41	 42	 0.041	 0.135	 0.0344	 150	 150	 150	 0.0	 0.0	 1	 -30.0	 30.0;
	43	 44	 0.0608	 0.2454	 0.06068	 116	 116	 116	 0.0	 0.0	 1	 -30.0	 30.0;
	34	 43	 0.0413	 0.1681	 0.04226	 166	 166	 166	 0.0	 0.0	 1	 -30.0	 30.0;
	44	 45	 0.0224	 0.0901	 0.0224	 165	 165	 165	 0.0	 0.0	 1	 -30.0	 30.0;
	45	 46	 0.04	 0.1356	 0.0332	 152	 152	 152	 0.0	 0.0	 1	 -30.0	 30.0;
	46	 47	 0.038	 0.127	 0.0316	 151	 151	 151	 0.0	 0.0	 1	 -30.0	 30.0;
	46	 48	 0.0601	 0.189	 0.0472	 147	 147	 147	 0.0	 0.0	 1	 -30.0	 30.0;
	47	 49	 0.0191	 0.0625	 0.01604	 149	 149	 149	 0.0	 0.0	 1	 -30.0	 30.0;
	42	 49	 0.0715	 0.323	 0.086	 88	 88	 88	 0.0	 0.0	 1	 -30.0	 30.0;
	42	 49	 0.0715	 0.323	 0.086	 88	 88	 88	 0.0	 0.0	 1	 -30.0	 30.0;
	45	 49	 0.0684	 0.186	 0.0444	 137	 137	 137	 0.0	 0.0	 1	 -30.0	 30.0;
	48	 49	 0.0179	 0.0505	 0.01258	 139	 139	 139	 0.0	 0.0	 1	 -30.0	 30.0;
	49	 50	 0.0267	 0.0752	 0.01874	 139	 139	 139	 0.0	 0.0	 1	 -30.0	 30.0;
	49	 51	 0.0486	 0.137	 0.0342	 139	 139	 139	 0.0	 0.0	 1	 -30.0	 30.0;
	51	 52	 0.0203	 0.0588	 0.01396	 141	 141	 141	 0.0	 0.0	 1	 -30.0	 30.0;
	52	 53	 0.0405	 0.1635	 0.04058	 165	 165	 165	 0.0	 0.0	 1	 -30.0	 30.0;
	53	 54	 0.0263	 0.122	 0.031	 176	 176	 176	 0.0	 0.0	 1	 -30.0	 30.0;
	49	 54	 0.073	 0.289	 0.0738	 98	 98	 98	 0.0	 0.0	 1	 -30.0	 30.0;
	49	 54	 0.0869	 0.291	 0.073	 96	 96	 96	 0.0	 0.0	 1	 -30.0	 30.0;
	54	 55	 0.0169	 0.0707	 0.0202	 168	 168	 168	 0.0	 0.0	 1	 -30.0	 30.0;
	54	 56	 0.00275	 0.00955	 0.00732	 154	 154	 154	 0.0	 0.0	 1	 -30.0	 30.0;
	55	 56	 0.00488	 0.0151	 0.00374	 145	 145	 145	 0.0	 0.0	 1	 -30.0	 30.0;
	56	 57	 0.0343	 0.0966	 0.0242	 139	 139	 139	 0.0	 0.0	 1	 -30.0	 30.0;
	50	 57	 0.0474	 0.134	 0.0332	 139	 139	 139	 0.0	 0.0	 1	 -30.0	 30.0;
	56	 58	 0.0343	 0.0966	 0.0242	 139	 139	 139	 0.0	 0.0	 1	 -30.0	 30.0;
	51	 58	 0.0255	 0.0719	 0.01788	 139	 139	 139	 0.0	 0.0	 1	 -30.0	 30.0;
	54	 59	 0.0503	 0.2293	 0.0598	 124	 124	 124	 0.0	 0.0	 1	 -30.0	 30.0;
	56	 59	 0.0825	 0.251	 0.0569	 111	 111	 111	 0.0	 0.0	 1	 -30.0	 30.0;
	56	 59	 0.0803	 0.239	 0.0536	 116	 116	 116	 0.0	 0.0	 1	 -30.0	 30.0;
	55	 59	 0.04739	 0.2158	 0.05646	 132	 132	 132	 0.0	 0.0	 1	 -30.0	 30.0;
	59	 60	 0.0317	 0.145	 0.0376	 175	 175	 175	 0.0	 0.0	 1	 -30.0	 30.0;
	59	 61	 0.0328	 0.15	 0.0388	 175	 175	 175	 0.0	 0.0	 1	 -30.0	 30.0;
	60	 61	 0.00264	 0.0135	 0.01456	 185	 185	 185	 0.0	 0.0	 1	 -30.0	 30.0;
	60	 62	 0.0123	 0.0561	 0.01468	 175	 175	 175	 0.0	 0.0	 1	 -30.0	 30.0;
	61	 62	 0.00824	 0.0376	 0.0098	 175	 175	 175	 0.0	 0.0	 1	 -30.0	 30.0;
	63	 59	 0.0	 0.0386	 0.0	 759	 759	 759	 0.96	 0.0	 1	 -30.0	 30.0;
	63	 64	 0.00172	 0.02	 0.216	 686	 686	 686	 0.0	 0.0	 1	 -30.0	 30.0;
	64	 61	 0.0	 0.0268	 0.0	 1094	 1094	 1094	 0.985	 0.0	 1	 -30.0	 30.0;
	38	 65	 0.00901	 0.0986	 1.046	 296	 296	 296	 0.0	 0.0	 1	 -30.0	 30.0;
	64	 65	 0.00269	 0.0302	 0.38	 674	 674	 674	 0.0	 0.0	 1	 -30.0	 30.0;
	49	 66	 0.018	 0.0919	 0.0248	 185	 185	 185	 0.0	 0.0	 1	 -30.0	 30.0;
	49	 66	 0.018	 0.0919	 0.0248	 185	 185	 185	 0.0	 0.0	 1	 -30.0	 30.0;
	62	 66	 0.0482	 0.218	 0.0578	 131	 131	 131	 0.0	 0.0	 1	 -30.0	 30.0;
	62	 67	 0.0258	 0.117	 0.031	 175	 175	 175	 0.0	 0.0	 1	 -30.0	 30.0;
	65	 66	 0.0	 0.037	 0.0	 792	 792	 792	 0.935	 0.0	 1	 -30.0	 30.0;
	66	 67	 0.0224	 0.1015	 0.02682	 175	 175	 175	 0.0	 0.0	 1	 -30.0	 30.0;
	65	 68	 0.00138	 0.016	 0.638	 685	 685	 685	 0.0	 0.0	 1	 -30.0	 30.0;
	47	 69	 0.0844	 0.2778	 0.07092	 101	 101	 101	 0.0	 0.0	 1	 -30.0	 30.0;
	49	 69	 0.0985	 0.324	 0.0828	 86	 86	 86	 0.0	 0.0	 1	 -30.0	 30.0;
	68	 69	 0.0	 0.037	 0.0	 792	 792	 792	 0.935	 0.0	 1	 -30.0	 30.0;
	69	 70	 0.03	 0.127	 0.122	 169	 169	 169	 0.0	 0.0	 1	 -30.0	 30.0;
	24	 70	 0.00221	 0.4115	 0.10198	 71	 71	 71	 0.0	 0.0	 1	 -30.0	 30.0;
	70	 71	 0.00882	 0.0355	 0.00878	 165	 165	 165	 0.0	 0.0	 1	 -30.0	 30.0;
	24	 72	 0.0488	 0.196	 0.0488	 145	 145	 145	 0.0	 0.0	 1	 -30.0	 30.0;
	71	 72	 0.0446	 0.18	 0.04444	 158	 158	 158	 0.0	 0.0	 1	 -30.0	 30.0;
	71	 73	 0.00866	 0.0454	 0.01178	 187	 187	 187	 0.0	 0.0	 1	 -30.0	 30.0;
	70	 74	 0.0401	 0.1323	 0.03368	 150	 150	 150	 0.0	 0.0	 1	 -30.0	 30.0;
	70	 75	 0.0428	 0.141	 0.036	 150	 150	 150	 0.0	 0.0	 1	 -30.0	 30.0;
	69	 75	 0.0405	 0.122	 0.124	 144	 144	 144	 0.0	 0.0	 1	 -30.0	 30.0;
	74	 75	 0.0123	 0.0406	 0.01034	 150	 150	 150	 0.0	 0.0	 1	 -30.0	 30.0;
	76	 77	 0.0444	 0.148	 0.0368	 151	 151	 151	 0.0	 0.0	 1	 -30.0	 30.0;
	69	 77	 0.0309	 0.101	 0.1038	 149	 149	 149	 0.0	 0.0	 1	 -30.0	 30.0;
	75	 77	 0.0601	 0.1999	 0.04978	 140	 140	 140	 0.0	 0.0	 1	 -30.0	 30.0;
	77	 78	 0.00376	 0.0124	 0.01264	 150	 150	 150	 0.0	 0.0	 1	 -30.0	 30.0;
	78	 79	 0.00546	 0.0244	 0.00648	 173	 173	 173	 0.0	 0.0	 1	 -30.0	 30.0;
	77	 80	 0.017	 0.0485	 0.0472	 140	 140	 140	 0.0	 0.0	 1	 -30.0	 30.0;
	77	 80	 0.0294	 0.105	 0.0228	 156	 156	 156	 0.0	 0.0	 1	 -30.0	 30.0;
	79	 80	 0.0156	 0.0704	 0.0187	 174	 174	 174	 0.0	 0.0	 1	 -30.0	 30.0;
	68	 81	 0.00175	 0.0202	 0.808	 683	 683	 683	 0.0	 0.0	 1	 -30.0	 30.0;
	81	 80	 0.0	 0.037	 0.0	 792	 792	 792	 0.935	 0.0	 1	 -30.0	 30.0;
	77	 82	 0.0298	 0.0853	 0.08174	 140	 140	 140	 0.0	 0.0	 1	 -30.0	 30.0;
	82	 83	 0.0112	 0.03665	 0.03796	 149	 149	 149	 0.0	 0.0	 1	 -30.0	 30.0;
	83	 84	 0.0625	 0.132	 0.0258	 121	 121	 121	 0.0	 0.0	 1	 -30.0	 30.0;
	83	 85	 0.043	 0.148	 0.0348	 153	 153	 153	 0.0	 0.0	 1	 -30.0	 30.0;
	84	 85	 0.0302	 0.0641	 0.01234	 121	 121	 121	 0.0	 0.0	 1	 -30.0	 30.0;
	85	 86	 0.035	 0.123	 0.0276	 155	 155	 155	 0.0	 0.0	 1	 -30.0	 30.0;
	86	 87	 0.02828	 0.2074	 0.0445	 140	 140	 140	 0.0	 0.0	 1	 -30.0	 30.0;
	85	 88	 0.02	 0.102	 0.0276	 185	 185	 185	 0.0	 0.0	 1	 -30.0	 30.0;
	85	 89	 0.0239	 0.173	 0.047	 167	 167	 167	 0.0	 0.0	 1	 -30.0	 30.0;
	88	 89	 0.0139	 0.0712	 0.01934	 185	 185	 185	 0.0	 0.0	 1	 -30.0	 30.0;
	89	 90	 0.0518	 0.188	 0.0528	 150	 150	 150	 0.0	 0.0	 1	 -30.0	 30.0;
	89	 90	 0.0238	 0.0997	 0.106	 168	 168	 168	 0.0	 0.0	 1	 -30.0	 30.0;
	90	 91	 0.0254	 0.0836	 0.0214	 150	 150	 150	 0.0	 0.0	 1	 -30.0	 30.0;
	89	 92	 0.0099	 0.0505	 0.0548	 185	 185	 185	 0.0	 0.0	 1	 -30.0	 30.0;
	89	 92	 0.0393	 0.1581	 0.0414	 165	 165	 165	 0.0	 0.0	 1	 -30.0	 30.0;
	91	 92	 0.0387	 0.1272	 0.03268	 150	 150	 150	 0.0	 0.0	 1	 -30.0	 30.0;
	92	 93	 0.0258	 0.0848	 0.0218	 150	 150	 150	 0.0	 0.0	 1	 -30.0	 30.0;
	92	 94	 0.0481	 0.158	 0.0406	 150	 150	 150	 0.0	 0.0	 1	 -30.0	 30.0;
	93	 94	 0.0223	 0.0732	 0.01876	 150	 150	 150	 0.0	 0.0	 1	 -30.0	 30.0;
	94	 95	 0.0132	 0.0434	 0.0111	 150	 150	 150	 0.0	 0.0	 1	 -30.0	 30.0;
	80	 96	 0.0356	 0.182	 0.0494	 158	 158	 158	 0.0	 0.0	 1	 -30.0	 30.0;
	82	 96	 0.0162	 0.053	 0.0544	 149	 149	 149	 0.0	 0.0	 1	 -30.0	 30.0;
	94	 96	 0.0269	 0.0869	 0.023	 148	 148	 148	 0.0	 0.0	 1	 -30.0	 30.0;
	80	 97	 0.0183	 0.0934	 0.0254	 185	 185	 185	 0.0	 0.0	 1	 -30.0	 30.0;
	80	 98	 0.0238	 0.108	 0.0286	 175	 175	 175	 0.0	 0.0	 1	 -30.0	 30.0;
	80	 99	 0.0454	 0.206	 0.0546	 139	 139	 139	 0.0	 0.0	 1	 -30.0	 30.0;
	92	 100	 0.0648	 0.295	 0.0472	 97	 97	 97	 0.0	 0.0	 1	 -30.0	 30.0;
	94	 100	 0.0178	 0.058	 0.0604	 149	 149	 149	 0.0	 0.0	 1	 -30.0	 30.0;
	95	 96	 0.0171	 0.0547	 0.01474	 148	 148	 148	 0.0	 0.0	 1	 -30.0	 30.0;
	96	 97	 0.0173	 0.0885	 0.024	 185	 185	 185	 0.0	 0.0	 1	 -30.0	 30.0;
	98	 100	 0.0397	 0.179	 0.0476	 159	 159	 159	 0.0	 0.0	 1	 -30.0	 30.0;
	99	 100	 0.018	 0.0813	 0.0216	 174	 174	 174	 0.0	 0.0	 1	 -30.0	 30.0;
	100	 101	 0.0277	 0.1262	 0.0328	 175	 175	 175	 0.0	 0.0	 1	 -30.0	 30.0;
	92	 102	 0.0123	 0.0559	 0.01464	 175	 175	 175	 0.0	 0.0	 1	 -30.0	 30.0;
	101	 102	 0.0246	 0.112	 0.0294	 175	 175	 175	 0.0	 0.0	 1	 -30.0	 30.0;
	100	 103	 0.016	 0.0525	 0.0536	 150	 150	 150	 0.0	 0.0	 1	 -30.0	 30.0;
	100	 104	 0.0451	 0.204	 0.0541	 140	 140	 140	 0.0	 0.0	 1	 -30.0	 30.0;
	103	 104	 0.0466	 0.1584	 0.0407	 152	 152	 152	 0.0	 0.0	 1	 -30.0	 30.0;
	103	 105	 0.0535	 0.1625	 0.0408	 144	 144	 144	 0.0	 0.0	 1	 -30.0	 30.0;
	100	 106	 0.0605	 0.229	 0.062	 123	 123	 123	 0.0	 0.0	 1	 -30.0	 30.0;
	104	 105	 0.00994	 0.0378	 0.00986	 160	 160	 160	 0.0	 0.0	 1	 -30.0	 30.0;
	105	 106	 0.014	 0.0547	 0.01434	 163	 163	 163	 0.0	 0.0	 1	 -30.0	 30.0;
	105	 107	 0.053	 0.183	 0.0472	 153	 153	 153	 0.0	 0.0	 1	 -30.0	 30.0;
	105	 108	 0.0261	 0.0703	 0.01844	 136	 136	 136	 0.0	 0.0	 1	 -30.0	 30.0;
	106	 107	 0.053	 0.183	 0.0472	 153	 153	 153	 0.0	 0.0	 1	 -30.0	 30.0;
	108	 109	 0.0105	 0.0288	 0.0076	 137	 137	 137	 0.0	 0.0	 1	 -30.0	 30.0;
	103	 110	 0.03906	 0.1813	 0.0461	 158	 158	 158	 0.0	 0.0	 1	 -30.0	 30.0;
	109	 110	 0.0278	 0.0762	 0.0202	 137	 137	 137	 0.0	 0.0	 1	 -30.0	 30.0;
	110	 111	 0.022	 0.0755	 0.02	 153	 153	 153	 0.0	 0.0	 1	 -30.0	 30.0;
	110	 112	 0.0247	 0.064	 0.062	 134	 134	 134	 0.0	 0.0	 1	 -30.0	 30.0;
	17	 113	 0.00913	 0.0301	 0.00768	 150	 150	 150	 0.0	 0.0	 1	 -30.0	 30.0;
	32	 113	 0.0615	 0.203	 0.0518	 138	 138	 138	 0.0	 0.0	 1	 -30.0	 30.0;
	32	 114	 0.0135	 0.0612	 0.01628	 175	 175	 175	 0.0	 0.0	 1	 -30.0	 30.0;
	27	 115	 0.0164	 0.0741	 0.01972	 174	 174	 174	 0.0	 0.0	 1	 -30.0	 30.0;
	114	 115	 0.0023	 0.0104	 0.00276	 174	 174	 174	 0.0	 0.0	 1	 -30.0	 30.0;
	68	 116	 0.00034	 0.00405	 0.164	 7217	 7217	 7217	 0.0	 0.0	 1	 -30.0	 30.0;
	12	 117	 0.0329	 0.14	 0.0358	 169	 169	 169	 0.0	 0.0	 1	 -30.0	 30.0;
	75	 118	 0.0145	 0.0481	 0.01198	 150	 150	 150	 0.0	 0.0	 1	 -30.0	 30.0;
	76	 118	 0.0164	 0.0544	 0.01356	 150	 150	 150	 0.0	 0.0	 1	 -30.0	 30.0;
];

% INFO    : === Translation Options ===
% INFO    : Phase Angle Bound:           30.0 (deg.)
% INFO    : Line Capacity Model:         stat
% INFO    : Gen Active Capacity Model:   stat
% INFO    : Gen Reactive Capacity Model: am50ag
% INFO    : Gen Active Cost Model:       stat
% INFO    : AC OPF Solution File:        nesta_case118_ieee.dat.opf.sol
% INFO    : 
% INFO    : === Generator Classification Notes ===
% INFO    : SYNC   35  -     0.00
% INFO    : COW    4   -    45.52
% INFO    : NG     15  -    54.48
% INFO    : 
% INFO    : === Generator Active Capacity Stat Model Notes ===
% INFO    : Gen at bus 1 - SYNC	: Pg=0.0, Pmax=100.0 -> Pmax=0   samples: 0
% INFO    : Gen at bus 4 - SYNC	: Pg=0.0, Pmax=100.0 -> Pmax=0   samples: 0
% INFO    : Gen at bus 6 - SYNC	: Pg=0.0, Pmax=100.0 -> Pmax=0   samples: 0
% INFO    : Gen at bus 8 - SYNC	: Pg=0.0, Pmax=100.0 -> Pmax=0   samples: 0
% INFO    : Gen at bus 10 - NG	: Pg=450.0, Pmax=550.0 -> Pmax=663   samples: 15
% INFO    : Gen at bus 12 - NG	: Pg=85.0, Pmax=185.0 -> Pmax=287   samples: 1
% INFO    : Gen at bus 15 - SYNC	: Pg=0.0, Pmax=100.0 -> Pmax=0   samples: 0
% INFO    : Gen at bus 18 - SYNC	: Pg=0.0, Pmax=100.0 -> Pmax=0   samples: 0
% INFO    : Gen at bus 19 - SYNC	: Pg=0.0, Pmax=100.0 -> Pmax=0   samples: 0
% INFO    : Gen at bus 24 - SYNC	: Pg=0.0, Pmax=100.0 -> Pmax=0   samples: 0
% INFO    : Gen at bus 25 - NG	: Pg=220.0, Pmax=320.0 -> Pmax=267   samples: 7
% INFO    : Gen at bus 26 - NG	: Pg=314.0, Pmax=414.0 -> Pmax=451   samples: 8
% INFO    : Gen at bus 27 - SYNC	: Pg=0.0, Pmax=100.0 -> Pmax=0   samples: 0
% INFO    : Gen at bus 31 - NG	: Pg=7.0, Pmax=107.0 -> Pmax=23   samples: 5
% INFO    : Gen at bus 32 - SYNC	: Pg=0.0, Pmax=100.0 -> Pmax=0   samples: 0
% INFO    : Gen at bus 34 - SYNC	: Pg=0.0, Pmax=100.0 -> Pmax=0   samples: 0
% INFO    : Gen at bus 36 - SYNC	: Pg=0.0, Pmax=100.0 -> Pmax=0   samples: 0
% INFO    : Gen at bus 40 - SYNC	: Pg=0.0, Pmax=100.0 -> Pmax=0   samples: 0
% INFO    : Gen at bus 42 - SYNC	: Pg=0.0, Pmax=100.0 -> Pmax=0   samples: 0
% INFO    : Gen at bus 46 - NG	: Pg=19.0, Pmax=119.0 -> Pmax=51   samples: 2
% INFO    : Gen at bus 49 - NG	: Pg=204.0, Pmax=304.0 -> Pmax=232   samples: 4
% INFO    : Gen at bus 54 - NG	: Pg=48.0, Pmax=148.0 -> Pmax=150   samples: 1
% INFO    : Gen at bus 55 - SYNC	: Pg=0.0, Pmax=100.0 -> Pmax=0   samples: 0
% INFO    : Gen at bus 56 - SYNC	: Pg=0.0, Pmax=100.0 -> Pmax=0   samples: 0
% INFO    : Gen at bus 59 - NG	: Pg=155.0, Pmax=255.0 -> Pmax=282   samples: 16
% INFO    : Gen at bus 61 - NG	: Pg=160.0, Pmax=260.0 -> Pmax=251   samples: 6
% INFO    : Gen at bus 62 - SYNC	: Pg=0.0, Pmax=100.0 -> Pmax=0   samples: 0
% INFO    : Gen at bus 65 - NG	: Pg=391.0, Pmax=491.0 -> Pmax=608   samples: 16
% INFO    : Gen at bus 66 - COW	: Pg=392.0, Pmax=492.0 -> Pmax=865   samples: 2
% INFO    : Gen at bus 69 - COW	: Pg=516.4, Pmax=805.2 -> Pmax=881   samples: 6
% INFO    : Gen at bus 70 - SYNC	: Pg=0.0, Pmax=100.0 -> Pmax=0   samples: 0
% INFO    : Gen at bus 72 - SYNC	: Pg=0.0, Pmax=100.0 -> Pmax=0   samples: 0
% INFO    : Gen at bus 73 - SYNC	: Pg=0.0, Pmax=100.0 -> Pmax=0   samples: 0
% INFO    : Gen at bus 74 - SYNC	: Pg=0.0, Pmax=100.0 -> Pmax=0   samples: 0
% INFO    : Gen at bus 76 - SYNC	: Pg=0.0, Pmax=100.0 -> Pmax=0   samples: 0
% INFO    : Gen at bus 77 - SYNC	: Pg=0.0, Pmax=100.0 -> Pmax=0   samples: 0
% INFO    : Gen at bus 80 - COW	: Pg=477.0, Pmax=577.0 -> Pmax=739   samples: 3
% INFO    : Gen at bus 85 - SYNC	: Pg=0.0, Pmax=100.0 -> Pmax=0   samples: 0
% INFO    : Gen at bus 87 - NG	: Pg=4.0, Pmax=104.0 -> Pmax=7   samples: 1
% INFO    : Gen at bus 89 - COW	: Pg=607.0, Pmax=707.0 -> Pmax=845   samples: 11
% INFO    : Gen at bus 90 - SYNC	: Pg=0.0, Pmax=100.0 -> Pmax=0   samples: 0
% INFO    : Gen at bus 91 - SYNC	: Pg=0.0, Pmax=100.0 -> Pmax=0   samples: 0
% INFO    : Gen at bus 92 - SYNC	: Pg=0.0, Pmax=100.0 -> Pmax=0   samples: 0
% INFO    : Gen at bus 99 - SYNC	: Pg=0.0, Pmax=100.0 -> Pmax=0   samples: 0
% INFO    : Gen at bus 100 - NG	: Pg=252.0, Pmax=352.0 -> Pmax=301   samples: 1
% INFO    : Gen at bus 103 - NG	: Pg=40.0, Pmax=140.0 -> Pmax=98   samples: 3
% INFO    : Gen at bus 104 - SYNC	: Pg=0.0, Pmax=100.0 -> Pmax=0   samples: 0
% INFO    : Gen at bus 105 - SYNC	: Pg=0.0, Pmax=100.0 -> Pmax=0   samples: 0
% INFO    : Gen at bus 107 - SYNC	: Pg=0.0, Pmax=100.0 -> Pmax=0   samples: 0
% INFO    : Gen at bus 110 - SYNC	: Pg=0.0, Pmax=100.0 -> Pmax=0   samples: 0
% INFO    : Gen at bus 111 - NG	: Pg=36.0, Pmax=136.0 -> Pmax=133   samples: 1
% INFO    : Gen at bus 112 - SYNC	: Pg=0.0, Pmax=100.0 -> Pmax=0   samples: 0
% INFO    : Gen at bus 113 - SYNC	: Pg=0.0, Pmax=100.0 -> Pmax=0   samples: 0
% INFO    : Gen at bus 116 - SYNC	: Pg=0.0, Pmax=100.0 -> Pmax=0   samples: 0
% INFO    : 
% INFO    : === Generator Reactive Capacity Atmost Max 50 Percent Active Model Notes ===
% INFO    : Gen at bus 25 - NG	: Pmax 267.0, Qmin -47.0, Qmax 140.0 -> Qmin -47.0, Qmax 134.0
% INFO    : Gen at bus 26 - NG	: Pmax 451.0, Qmin -1000.0, Qmax 1000.0 -> Qmin -226.0, Qmax 226.0
% INFO    : Gen at bus 31 - NG	: Pmax 23.0, Qmin -300.0, Qmax 300.0 -> Qmin -12.0, Qmax 12.0
% INFO    : Gen at bus 46 - NG	: Pmax 51.0, Qmin -100.0, Qmax 100.0 -> Qmin -26.0, Qmax 26.0
% INFO    : Gen at bus 49 - NG	: Pmax 232.0, Qmin -85.0, Qmax 210.0 -> Qmin -85.0, Qmax 116.0
% INFO    : Gen at bus 54 - NG	: Pmax 150.0, Qmin -300.0, Qmax 300.0 -> Qmin -75.0, Qmax 75.0
% INFO    : Gen at bus 59 - NG	: Pmax 282.0, Qmin -60.0, Qmax 180.0 -> Qmin -60.0, Qmax 141.0
% INFO    : Gen at bus 61 - NG	: Pmax 251.0, Qmin -100.0, Qmax 300.0 -> Qmin -100.0, Qmax 126.0
% INFO    : Gen at bus 87 - NG	: Pmax 7.0, Qmin -100.0, Qmax 1000.0 -> Qmin -4.0, Qmax 4.0
% INFO    : Gen at bus 100 - NG	: Pmax 301.0, Qmin -50.0, Qmax 155.0 -> Qmin -50.0, Qmax 151.0
% INFO    : Gen at bus 111 - NG	: Pmax 133.0, Qmin -100.0, Qmax 1000.0 -> Qmin -67.0, Qmax 67.0
% INFO    : 
% INFO    : === Generator Active Cost Stat Model Notes ===
% INFO    : Updated Generator Cost: SYNC - 0.0 40.0 0.01 -> 0 0.0 0
% INFO    : Updated Generator Cost: SYNC - 0.0 40.0 0.01 -> 0 0.0 0
% INFO    : Updated Generator Cost: SYNC - 0.0 40.0 0.01 -> 0 0.0 0
% INFO    : Updated Generator Cost: SYNC - 0.0 40.0 0.01 -> 0 0.0 0
% INFO    : Updated Generator Cost: NG - 0.0 20.0 0.0222222 -> 0 1.4633885834 0
% INFO    : Updated Generator Cost: NG - 0.0 20.0 0.117647 -> 0 0.889053717882 0
% INFO    : Updated Generator Cost: SYNC - 0.0 40.0 0.01 -> 0 0.0 0
% INFO    : Updated Generator Cost: SYNC - 0.0 40.0 0.01 -> 0 0.0 0
% INFO    : Updated Generator Cost: SYNC - 0.0 40.0 0.01 -> 0 0.0 0
% INFO    : Updated Generator Cost: SYNC - 0.0 40.0 0.01 -> 0 0.0 0
% INFO    : Updated Generator Cost: NG - 0.0 20.0 0.0454545 -> 0 0.929688337311 0
% INFO    : Updated Generator Cost: NG - 0.0 20.0 0.0318471 -> 0 1.11812071236 0
% INFO    : Updated Generator Cost: SYNC - 0.0 40.0 0.01 -> 0 0.0 0
% INFO    : Updated Generator Cost: NG - 0.0 20.0 1.42857 -> 0 0.814446272431 0
% INFO    : Updated Generator Cost: SYNC - 0.0 40.0 0.01 -> 0 0.0 0
% INFO    : Updated Generator Cost: SYNC - 0.0 40.0 0.01 -> 0 0.0 0
% INFO    : Updated Generator Cost: SYNC - 0.0 40.0 0.01 -> 0 0.0 0
% INFO    : Updated Generator Cost: SYNC - 0.0 40.0 0.01 -> 0 0.0 0
% INFO    : Updated Generator Cost: SYNC - 0.0 40.0 0.01 -> 0 0.0 0
% INFO    : Updated Generator Cost: NG - 0.0 20.0 0.526316 -> 0 1.5137922571 0
% INFO    : Updated Generator Cost: NG - 0.0 20.0 0.0490196 -> 0 1.0714126565 0
% INFO    : Updated Generator Cost: NG - 0.0 20.0 0.208333 -> 0 1.32471244109 0
% INFO    : Updated Generator Cost: SYNC - 0.0 40.0 0.01 -> 0 0.0 0
% INFO    : Updated Generator Cost: SYNC - 0.0 40.0 0.01 -> 0 0.0 0
% INFO    : Updated Generator Cost: NG - 0.0 20.0 0.0645161 -> 0 1.42620727427 0
% INFO    : Updated Generator Cost: NG - 0.0 20.0 0.0625 -> 0 1.24520840743 0
% INFO    : Updated Generator Cost: SYNC - 0.0 40.0 0.01 -> 0 0.0 0
% INFO    : Updated Generator Cost: NG - 0.0 20.0 0.0255754 -> 0 0.969761594505 0
% INFO    : Updated Generator Cost: COW - 0.0 20.0 0.0255102 -> 0 0.865713359183 0
% INFO    : Updated Generator Cost: COW - 0.0 20.0 0.0193648 -> 0 0.518512797041 0
% INFO    : Updated Generator Cost: SYNC - 0.0 40.0 0.01 -> 0 0.0 0
% INFO    : Updated Generator Cost: SYNC - 0.0 40.0 0.01 -> 0 0.0 0
% INFO    : Updated Generator Cost: SYNC - 0.0 40.0 0.01 -> 0 0.0 0
% INFO    : Updated Generator Cost: SYNC - 0.0 40.0 0.01 -> 0 0.0 0
% INFO    : Updated Generator Cost: SYNC - 0.0 40.0 0.01 -> 0 0.0 0
% INFO    : Updated Generator Cost: SYNC - 0.0 40.0 0.01 -> 0 0.0 0
% INFO    : Updated Generator Cost: COW - 0.0 20.0 0.0209644 -> 0 1.00663636189 0
% INFO    : Updated Generator Cost: SYNC - 0.0 40.0 0.01 -> 0 0.0 0
% INFO    : Updated Generator Cost: NG - 0.0 20.0 2.5 -> 0 1.3811840047 0
% INFO    : Updated Generator Cost: COW - 0.0 20.0 0.0164745 -> 0 0.793496383926 0
% INFO    : Updated Generator Cost: SYNC - 0.0 40.0 0.01 -> 0 0.0 0
% INFO    : Updated Generator Cost: SYNC - 0.0 40.0 0.01 -> 0 0.0 0
% INFO    : Updated Generator Cost: SYNC - 0.0 40.0 0.01 -> 0 0.0 0
% INFO    : Updated Generator Cost: SYNC - 0.0 40.0 0.01 -> 0 0.0 0
% INFO    : Updated Generator Cost: NG - 0.0 20.0 0.0396825 -> 0 1.06656232928 0
% INFO    : Updated Generator Cost: NG - 0.0 20.0 0.25 -> 0 0.69119334663 0
% INFO    : Updated Generator Cost: SYNC - 0.0 40.0 0.01 -> 0 0.0 0
% INFO    : Updated Generator Cost: SYNC - 0.0 40.0 0.01 -> 0 0.0 0
% INFO    : Updated Generator Cost: SYNC - 0.0 40.0 0.01 -> 0 0.0 0
% INFO    : Updated Generator Cost: SYNC - 0.0 40.0 0.01 -> 0 0.0 0
% INFO    : Updated Generator Cost: NG - 0.0 20.0 0.277778 -> 0 1.20088730909 0
% INFO    : Updated Generator Cost: SYNC - 0.0 40.0 0.01 -> 0 0.0 0
% INFO    : Updated Generator Cost: SYNC - 0.0 40.0 0.01 -> 0 0.0 0
% INFO    : Updated Generator Cost: SYNC - 0.0 40.0 0.01 -> 0 0.0 0
% INFO    : 
% INFO    : === Line Capacity Stat Model Notes ===
% INFO    : Updated Thermal Rating: on line 1-2 : Rate A, Rate B, Rate C , 9900.0, 0.0, 0.0 -> 150
% INFO    : Updated Thermal Rating: on line 1-3 : Rate A, Rate B, Rate C , 9900.0, 0.0, 0.0 -> 150
% INFO    : Updated Thermal Rating: on line 4-5 : Rate A, Rate B, Rate C , 9900.0, 0.0, 0.0 -> 175
% INFO    : Updated Thermal Rating: on line 3-5 : Rate A, Rate B, Rate C , 9900.0, 0.0, 0.0 -> 174
% INFO    : Updated Thermal Rating: on line 5-6 : Rate A, Rate B, Rate C , 9900.0, 0.0, 0.0 -> 175
% INFO    : Updated Thermal Rating: on line 6-7 : Rate A, Rate B, Rate C , 9900.0, 0.0, 0.0 -> 175
% INFO    : Updated Thermal Rating: on line 8-9 : Rate A, Rate B, Rate C , 9900.0, 0.0, 0.0 -> 710
% WARNING : Missing data for branch flow stat model on line 8-5 using max current model : from_basekv=345.0 to_basekv=138.0 r=0.0 x=0.0267
% INFO    : Updated Thermal Rating: on transformer 8-5 : Rate A, Rate B, Rate C , 9900.0, 0.0, 0.0 -> 1098
% INFO    : Updated Thermal Rating: on line 9-10 : Rate A, Rate B, Rate C , 9900.0, 0.0, 0.0 -> 709
% INFO    : Updated Thermal Rating: on line 4-11 : Rate A, Rate B, Rate C , 9900.0, 0.0, 0.0 -> 150
% INFO    : Updated Thermal Rating: on line 5-11 : Rate A, Rate B, Rate C , 9900.0, 0.0, 0.0 -> 151
% INFO    : Updated Thermal Rating: on line 11-12 : Rate A, Rate B, Rate C , 9900.0, 0.0, 0.0 -> 150
% INFO    : Updated Thermal Rating: on line 2-12 : Rate A, Rate B, Rate C , 9900.0, 0.0, 0.0 -> 150
% INFO    : Updated Thermal Rating: on line 3-12 : Rate A, Rate B, Rate C , 9900.0, 0.0, 0.0 -> 150
% INFO    : Updated Thermal Rating: on line 7-12 : Rate A, Rate B, Rate C , 9900.0, 0.0, 0.0 -> 163
% INFO    : Updated Thermal Rating: on line 11-13 : Rate A, Rate B, Rate C , 9900.0, 0.0, 0.0 -> 150
% INFO    : Updated Thermal Rating: on line 12-14 : Rate A, Rate B, Rate C , 9900.0, 0.0, 0.0 -> 150
% WARNING : Updated Thermal Rating Stat Model was larger than UB Model: on 13-15 : 150 , 114
% INFO    : Updated Thermal Rating: on line 13-15 : Rate A, Rate B, Rate C , 9900.0, 0.0, 0.0 -> 114
% WARNING : Updated Thermal Rating Stat Model was larger than UB Model: on 14-15 : 149 , 143
% INFO    : Updated Thermal Rating: on line 14-15 : Rate A, Rate B, Rate C , 9900.0, 0.0, 0.0 -> 143
% INFO    : Updated Thermal Rating: on line 12-16 : Rate A, Rate B, Rate C , 9900.0, 0.0, 0.0 -> 163
% INFO    : Updated Thermal Rating: on line 15-17 : Rate A, Rate B, Rate C , 9900.0, 0.0, 0.0 -> 150
% WARNING : Updated Thermal Rating Stat Model was larger than UB Model: on 16-17 : 164 , 157
% INFO    : Updated Thermal Rating: on line 16-17 : Rate A, Rate B, Rate C , 9900.0, 0.0, 0.0 -> 157
% INFO    : Updated Thermal Rating: on line 17-18 : Rate A, Rate B, Rate C , 9900.0, 0.0, 0.0 -> 166
% INFO    : Updated Thermal Rating: on line 18-19 : Rate A, Rate B, Rate C , 9900.0, 0.0, 0.0 -> 172
% INFO    : Updated Thermal Rating: on line 19-20 : Rate A, Rate B, Rate C , 9900.0, 0.0, 0.0 -> 177
% INFO    : Updated Thermal Rating: on line 15-19 : Rate A, Rate B, Rate C , 9900.0, 0.0, 0.0 -> 150
% INFO    : Updated Thermal Rating: on line 20-21 : Rate A, Rate B, Rate C , 9900.0, 0.0, 0.0 -> 176
% INFO    : Updated Thermal Rating: on line 21-22 : Rate A, Rate B, Rate C , 9900.0, 0.0, 0.0 -> 177
% INFO    : Updated Thermal Rating: on line 22-23 : Rate A, Rate B, Rate C , 9900.0, 0.0, 0.0 -> 177
% INFO    : Updated Thermal Rating: on line 23-24 : Rate A, Rate B, Rate C , 9900.0, 0.0, 0.0 -> 157
% INFO    : Updated Thermal Rating: on line 23-25 : Rate A, Rate B, Rate C , 9900.0, 0.0, 0.0 -> 185
% WARNING : Missing data for branch flow stat model on line 26-25 using max current model : from_basekv=345.0 to_basekv=138.0 r=0.0 x=0.0382
% INFO    : Updated Thermal Rating: on transformer 26-25 : Rate A, Rate B, Rate C , 9900.0, 0.0, 0.0 -> 767
% WARNING : Updated Thermal Rating Stat Model was larger than UB Model: on 25-27 : 185 , 176
% INFO    : Updated Thermal Rating: on line 25-27 : Rate A, Rate B, Rate C , 9900.0, 0.0, 0.0 -> 176
% INFO    : Updated Thermal Rating: on line 27-28 : Rate A, Rate B, Rate C , 9900.0, 0.0, 0.0 -> 173
% INFO    : Updated Thermal Rating: on line 28-29 : Rate A, Rate B, Rate C , 9900.0, 0.0, 0.0 -> 164
% WARNING : Missing data for branch flow stat model on line 30-17 using max current model : from_basekv=345.0 to_basekv=138.0 r=0.0 x=0.0388
% INFO    : Updated Thermal Rating: on transformer 30-17 : Rate A, Rate B, Rate C , 9900.0, 0.0, 0.0 -> 755
% WARNING : Updated Thermal Rating Stat Model was larger than UB Model: on 8-30 : 687 , 579
% INFO    : Updated Thermal Rating: on line 8-30 : Rate A, Rate B, Rate C , 9900.0, 0.0, 0.0 -> 579
% WARNING : Updated Thermal Rating Stat Model was larger than UB Model: on 26-30 : 661 , 339
% INFO    : Updated Thermal Rating: on line 26-30 : Rate A, Rate B, Rate C , 9900.0, 0.0, 0.0 -> 339
% INFO    : Updated Thermal Rating: on line 17-31 : Rate A, Rate B, Rate C , 9900.0, 0.0, 0.0 -> 150
% INFO    : Updated Thermal Rating: on line 29-31 : Rate A, Rate B, Rate C , 9900.0, 0.0, 0.0 -> 145
% INFO    : Updated Thermal Rating: on line 23-32 : Rate A, Rate B, Rate C , 9900.0, 0.0, 0.0 -> 157
% INFO    : Updated Thermal Rating: on line 31-32 : Rate A, Rate B, Rate C , 9900.0, 0.0, 0.0 -> 150
% INFO    : Updated Thermal Rating: on line 27-32 : Rate A, Rate B, Rate C , 9900.0, 0.0, 0.0 -> 150
% INFO    : Updated Thermal Rating: on line 15-33 : Rate A, Rate B, Rate C , 9900.0, 0.0, 0.0 -> 149
% WARNING : Updated Thermal Rating Stat Model was larger than UB Model: on 19-34 : 150 , 113
% INFO    : Updated Thermal Rating: on line 19-34 : Rate A, Rate B, Rate C , 9900.0, 0.0, 0.0 -> 113
% INFO    : Updated Thermal Rating: on line 35-36 : Rate A, Rate B, Rate C , 9900.0, 0.0, 0.0 -> 175
% INFO    : Updated Thermal Rating: on line 35-37 : Rate A, Rate B, Rate C , 9900.0, 0.0, 0.0 -> 174
% INFO    : Updated Thermal Rating: on line 33-37 : Rate A, Rate B, Rate C , 9900.0, 0.0, 0.0 -> 153
% INFO    : Updated Thermal Rating: on line 34-36 : Rate A, Rate B, Rate C , 9900.0, 0.0, 0.0 -> 145
% INFO    : Updated Thermal Rating: on line 34-37 : Rate A, Rate B, Rate C , 9900.0, 0.0, 0.0 -> 158
% WARNING : Missing data for branch flow stat model on line 38-37 using max current model : from_basekv=345.0 to_basekv=138.0 r=0.0 x=0.0375
% INFO    : Updated Thermal Rating: on transformer 38-37 : Rate A, Rate B, Rate C , 9900.0, 0.0, 0.0 -> 782
% INFO    : Updated Thermal Rating: on line 37-39 : Rate A, Rate B, Rate C , 9900.0, 0.0, 0.0 -> 150
% INFO    : Updated Thermal Rating: on line 37-40 : Rate A, Rate B, Rate C , 9900.0, 0.0, 0.0 -> 139
% WARNING : Updated Thermal Rating Stat Model was larger than UB Model: on 30-38 : 686 , 541
% INFO    : Updated Thermal Rating: on line 30-38 : Rate A, Rate B, Rate C , 9900.0, 0.0, 0.0 -> 541
% INFO    : Updated Thermal Rating: on line 39-40 : Rate A, Rate B, Rate C , 9900.0, 0.0, 0.0 -> 150
% INFO    : Updated Thermal Rating: on line 40-41 : Rate A, Rate B, Rate C , 9900.0, 0.0, 0.0 -> 151
% INFO    : Updated Thermal Rating: on line 40-42 : Rate A, Rate B, Rate C , 9900.0, 0.0, 0.0 -> 150
% INFO    : Updated Thermal Rating: on line 41-42 : Rate A, Rate B, Rate C , 9900.0, 0.0, 0.0 -> 150
% WARNING : Updated Thermal Rating Stat Model was larger than UB Model: on 43-44 : 165 , 116
% INFO    : Updated Thermal Rating: on line 43-44 : Rate A, Rate B, Rate C , 9900.0, 0.0, 0.0 -> 116
% INFO    : Updated Thermal Rating: on line 34-43 : Rate A, Rate B, Rate C , 9900.0, 0.0, 0.0 -> 166
% INFO    : Updated Thermal Rating: on line 44-45 : Rate A, Rate B, Rate C , 9900.0, 0.0, 0.0 -> 165
% INFO    : Updated Thermal Rating: on line 45-46 : Rate A, Rate B, Rate C , 9900.0, 0.0, 0.0 -> 152
% INFO    : Updated Thermal Rating: on line 46-47 : Rate A, Rate B, Rate C , 9900.0, 0.0, 0.0 -> 151
% INFO    : Updated Thermal Rating: on line 46-48 : Rate A, Rate B, Rate C , 9900.0, 0.0, 0.0 -> 147
% INFO    : Updated Thermal Rating: on line 47-49 : Rate A, Rate B, Rate C , 9900.0, 0.0, 0.0 -> 149
% WARNING : Updated Thermal Rating Stat Model was larger than UB Model: on 42-49 : 174 , 88
% INFO    : Updated Thermal Rating: on line 42-49 : Rate A, Rate B, Rate C , 9900.0, 0.0, 0.0 -> 88
% WARNING : Updated Thermal Rating Stat Model was larger than UB Model: on 42-49 : 174 , 88
% INFO    : Updated Thermal Rating: on line 42-49 : Rate A, Rate B, Rate C , 9900.0, 0.0, 0.0 -> 88
% INFO    : Updated Thermal Rating: on line 45-49 : Rate A, Rate B, Rate C , 9900.0, 0.0, 0.0 -> 137
% INFO    : Updated Thermal Rating: on line 48-49 : Rate A, Rate B, Rate C , 9900.0, 0.0, 0.0 -> 139
% INFO    : Updated Thermal Rating: on line 49-50 : Rate A, Rate B, Rate C , 9900.0, 0.0, 0.0 -> 139
% INFO    : Updated Thermal Rating: on line 49-51 : Rate A, Rate B, Rate C , 9900.0, 0.0, 0.0 -> 139
% INFO    : Updated Thermal Rating: on line 51-52 : Rate A, Rate B, Rate C , 9900.0, 0.0, 0.0 -> 141
% INFO    : Updated Thermal Rating: on line 52-53 : Rate A, Rate B, Rate C , 9900.0, 0.0, 0.0 -> 165
% INFO    : Updated Thermal Rating: on line 53-54 : Rate A, Rate B, Rate C , 9900.0, 0.0, 0.0 -> 176
% WARNING : Updated Thermal Rating Stat Model was larger than UB Model: on 49-54 : 164 , 98
% INFO    : Updated Thermal Rating: on line 49-54 : Rate A, Rate B, Rate C , 9900.0, 0.0, 0.0 -> 98
% WARNING : Updated Thermal Rating Stat Model was larger than UB Model: on 49-54 : 151 , 96
% INFO    : Updated Thermal Rating: on line 49-54 : Rate A, Rate B, Rate C , 9900.0, 0.0, 0.0 -> 96
% INFO    : Updated Thermal Rating: on line 54-55 : Rate A, Rate B, Rate C , 9900.0, 0.0, 0.0 -> 168
% INFO    : Updated Thermal Rating: on line 54-56 : Rate A, Rate B, Rate C , 9900.0, 0.0, 0.0 -> 154
% INFO    : Updated Thermal Rating: on line 55-56 : Rate A, Rate B, Rate C , 9900.0, 0.0, 0.0 -> 145
% INFO    : Updated Thermal Rating: on line 56-57 : Rate A, Rate B, Rate C , 9900.0, 0.0, 0.0 -> 139
% INFO    : Updated Thermal Rating: on line 50-57 : Rate A, Rate B, Rate C , 9900.0, 0.0, 0.0 -> 139
% INFO    : Updated Thermal Rating: on line 56-58 : Rate A, Rate B, Rate C , 9900.0, 0.0, 0.0 -> 139
% INFO    : Updated Thermal Rating: on line 51-58 : Rate A, Rate B, Rate C , 9900.0, 0.0, 0.0 -> 139
% WARNING : Updated Thermal Rating Stat Model was larger than UB Model: on 54-59 : 175 , 124
% INFO    : Updated Thermal Rating: on line 54-59 : Rate A, Rate B, Rate C , 9900.0, 0.0, 0.0 -> 124
% WARNING : Updated Thermal Rating Stat Model was larger than UB Model: on 56-59 : 144 , 111
% INFO    : Updated Thermal Rating: on line 56-59 : Rate A, Rate B, Rate C , 9900.0, 0.0, 0.0 -> 111
% WARNING : Updated Thermal Rating Stat Model was larger than UB Model: on 56-59 : 143 , 116
% INFO    : Updated Thermal Rating: on line 56-59 : Rate A, Rate B, Rate C , 9900.0, 0.0, 0.0 -> 116
% WARNING : Updated Thermal Rating Stat Model was larger than UB Model: on 55-59 : 175 , 132
% INFO    : Updated Thermal Rating: on line 55-59 : Rate A, Rate B, Rate C , 9900.0, 0.0, 0.0 -> 132
% INFO    : Updated Thermal Rating: on line 59-60 : Rate A, Rate B, Rate C , 9900.0, 0.0, 0.0 -> 175
% INFO    : Updated Thermal Rating: on line 59-61 : Rate A, Rate B, Rate C , 9900.0, 0.0, 0.0 -> 175
% INFO    : Updated Thermal Rating: on line 60-61 : Rate A, Rate B, Rate C , 9900.0, 0.0, 0.0 -> 185
% INFO    : Updated Thermal Rating: on line 60-62 : Rate A, Rate B, Rate C , 9900.0, 0.0, 0.0 -> 175
% INFO    : Updated Thermal Rating: on line 61-62 : Rate A, Rate B, Rate C , 9900.0, 0.0, 0.0 -> 175
% WARNING : Missing data for branch flow stat model on line 63-59 using max current model : from_basekv=345.0 to_basekv=138.0 r=0.0 x=0.0386
% INFO    : Updated Thermal Rating: on transformer 63-59 : Rate A, Rate B, Rate C , 9900.0, 0.0, 0.0 -> 759
% INFO    : Updated Thermal Rating: on line 63-64 : Rate A, Rate B, Rate C , 9900.0, 0.0, 0.0 -> 686
% WARNING : Missing data for branch flow stat model on line 64-61 using max current model : from_basekv=345.0 to_basekv=138.0 r=0.0 x=0.0268
% INFO    : Updated Thermal Rating: on transformer 64-61 : Rate A, Rate B, Rate C , 9900.0, 0.0, 0.0 -> 1094
% WARNING : Updated Thermal Rating Stat Model was larger than UB Model: on 38-65 : 666 , 296
% INFO    : Updated Thermal Rating: on line 38-65 : Rate A, Rate B, Rate C , 9900.0, 0.0, 0.0 -> 296
% INFO    : Updated Thermal Rating: on line 64-65 : Rate A, Rate B, Rate C , 9900.0, 0.0, 0.0 -> 674
% INFO    : Updated Thermal Rating: on line 49-66 : Rate A, Rate B, Rate C , 9900.0, 0.0, 0.0 -> 185
% INFO    : Updated Thermal Rating: on line 49-66 : Rate A, Rate B, Rate C , 9900.0, 0.0, 0.0 -> 185
% WARNING : Updated Thermal Rating Stat Model was larger than UB Model: on 62-66 : 174 , 131
% INFO    : Updated Thermal Rating: on line 62-66 : Rate A, Rate B, Rate C , 9900.0, 0.0, 0.0 -> 131
% INFO    : Updated Thermal Rating: on line 62-67 : Rate A, Rate B, Rate C , 9900.0, 0.0, 0.0 -> 175
% WARNING : Missing data for branch flow stat model on line 65-66 using max current model : from_basekv=345.0 to_basekv=138.0 r=0.0 x=0.037
% INFO    : Updated Thermal Rating: on transformer 65-66 : Rate A, Rate B, Rate C , 9900.0, 0.0, 0.0 -> 792
% INFO    : Updated Thermal Rating: on line 66-67 : Rate A, Rate B, Rate C , 9900.0, 0.0, 0.0 -> 175
% INFO    : Updated Thermal Rating: on line 65-68 : Rate A, Rate B, Rate C , 9900.0, 0.0, 0.0 -> 685
% WARNING : Updated Thermal Rating Stat Model was larger than UB Model: on 47-69 : 150 , 101
% INFO    : Updated Thermal Rating: on line 47-69 : Rate A, Rate B, Rate C , 9900.0, 0.0, 0.0 -> 101
% WARNING : Updated Thermal Rating Stat Model was larger than UB Model: on 49-69 : 150 , 86
% INFO    : Updated Thermal Rating: on line 49-69 : Rate A, Rate B, Rate C , 9900.0, 0.0, 0.0 -> 86
% WARNING : Missing data for branch flow stat model on line 68-69 using max current model : from_basekv=345.0 to_basekv=138.0 r=0.0 x=0.037
% INFO    : Updated Thermal Rating: on transformer 68-69 : Rate A, Rate B, Rate C , 9900.0, 0.0, 0.0 -> 792
% INFO    : Updated Thermal Rating: on line 69-70 : Rate A, Rate B, Rate C , 9900.0, 0.0, 0.0 -> 169
% WARNING : Updated Thermal Rating Stat Model was larger than UB Model: on 24-70 : 1030 , 71
% INFO    : Updated Thermal Rating: on line 24-70 : Rate A, Rate B, Rate C , 9900.0, 0.0, 0.0 -> 71
% INFO    : Updated Thermal Rating: on line 70-71 : Rate A, Rate B, Rate C , 9900.0, 0.0, 0.0 -> 165
% WARNING : Updated Thermal Rating Stat Model was larger than UB Model: on 24-72 : 165 , 145
...